ELEMENTS
 H  O  N
END

SPECIES
 H2  H  O2  O  OH  HO2  H2O2  H2O   N2
END

REACTIONS
H+O2=O+OH       3.55E+15    -0.40   1.66E+04
O+H2=H+OH       5.08E+04     2.70   6.29E+03
H2+OH=H2O+H     2.16E+08     1.50   3.43E+03
O+H2O=OH+OH     2.97E+06     2.00   1.34E+04
H2+M=H+H+M     4.58E+19    -1.40   1.04E+05
  H2/2.5/ H2O/12.0/


O+O+M=O2+M      6.16E+15    -0.50   0.00
  H2/2.5/ H2O/12.0/


O+H+M=OH+M      4.71E+18    -1.00   0.00
  H2/2.5/ H2O/12.0/


H+OH+M=H2O+M    3.80E+22    -2.00   0.00
  H2/2.5/ H2O/12.0/


H+O2(+M)=HO2(+M) 1.48E+12   0.60    0.00   !M=N2
  LOW/ 6.37E+20 -1.72 5.25E+02 /
  TROE/ 0.8  1.0e-30  1.0e+30 /
  H2/2.0/ H2O/11.0/ O2/0.78/


HO2+H=H2+O2     1.66E+13    0.00    8.23E+02
HO2+H=OH+OH     7.08E+13    0.00    2.95E+02
HO2+O=O2+OH     3.25E+13    0.00    0.00
HO2+OH=H2O+O2   2.89E+13    0.00    -4.97E+02
HO2+HO2=H2O2+O2 4.20E+14    0.00    1.20E+04
  Duplicate
HO2+HO2=H2O2+O2 1.30E+11    0.00    -1.63E+03
  Duplicate
H2O2(+M)=OH+OH(+M) 2.95E+14 0.00    4.84E+04
  LOW/ 1.20E+17 0.00 4.55E+04 /
  TROE/ 0.5  1.0e-30  1.0e+30 /
  H2/2.5/ H2O/12.0/


H2O2+H=H2O+OH   2.41E+13    0.00    3.97E+03
H2O2+H=HO2+H2   4.82E+13    0.00    7.95E+03
H2O2+O=OH+HO2   9.55E+06    2.00    3.97E+03
H2O2+OH=HO2+H2O 1.00E+12    0.00    0.00
  Duplicate
H2O2+OH=HO2+H2O 5.80E+14    0.00    9.56E+03
  Duplicate
END
